ID Simple 1 d example
BEGIN BULK
$RID,ID,CP,X1,X2,X3,CD,PS(CONSTRAINTS 
GRID,1,,0.,0.,0.,,123456
GRID,2,,280.,0.,0.,,23456
GRID,3,,380.,0.,0.,,23456
GRID,4,,480.,0.,0.,,123456
$CBAR,EID,PID,GA,GB,X1,X2,X3,PA,PB (PA,PB -- CONSTRAINTS RELEASED
CBAR,10,100,1,2
CBAR,20,200,2,3
CBAR,30,300,3,4
$PBAR,PID,MID,A,I1,I2,J,NSM
PBAR,100,51,400
PBAR,200,52,200
PBAR,300,53,70
$MAT1,MID<E,G,NU,RHO  E=Youngs Modulus, G=ShearModulus, NU = Possions Ratio
MAT1,51,70000,3
MAT1,52,100000,3
MAT1,53,200000,3
SPC,1,1,123456
$FORCE,SID,CID,GRID,F,N1,N2,N3  I.E. LOADSET,COORDINGATESYSTEM,GRID,FORCE,BASIS VECTORS
FORCE,0,0,2,50,-1,0,0
FORCE,0,0,3,100,1,0,0
$MOMENT,SID,GRID,CID,MOMENT,N1,N2,N3   NOTE DIFFERENT ORDER (SIGH)