ID,3 Memeber Truss
BEGIN BULK
GRID,1,0,0,0
GRID,2,10.,0.,0
GRID,3,10.,10.,0.
CBAR,100,1,1,2
CBAR,101,1,2,3
CBAR,102,1,3,1
PBAR,1000,1,3.14
MAT1,1,30E6
FORCE,1,0,3,100,1.,0.,0.
FORCE,1,0,3,200,0,
END BULK